///////////////////////////////////////////////////////; 
// This glm created by 'Milsoft to GridLabD Export'. //; 
//             Sun Jan 24 11:45:47 2016              //; 
///////////////////////////////////////////////////////; 

#set minimum_timestep=1s;

//#include "battery_schedule.glm";
//#set verbose=1
//#set debug=1

//Co-simulation using FNCS

clock {																							///MODIFIED CLOCK START/STOP TIMES///
		  starttime '2016-07-08 00:00:00';
		  stoptime '2016-07-09 00:00:00';
		  } 

module powerflow{ 																				///MODIFIED - SOLVER METHOD CHANGED TO NR///
		  solver_method NR;
		  default_maximum_voltage_error 1e-6;
		  }
module tape;																					///ADDED MODULE TAPE///
module generators;
module climate;
module connection;
module residential;																				///ADDED MODULE RESIDENTIAL///

object voltdump {                          
              filename f16_voltdump_1255.csv;
              runtime '2016-07-08 12:55:00';
              mode polar;
}

//high peak with after DR
object voltdump {                          
              filename f16_voltdump_1720.csv;
              runtime '2016-07-08 17:20:00';
              mode polar;
}

object voltdump {
              filename f16_voltdump_1836.csv;
              runtime '2016-07-08 18:36:00';
              mode polar;
}

object voltdump {
              filename f16_voltdump_2030.csv;
              runtime '2016-07-08 20:30:00';
              mode polar;
}

object currdump {                         
              filename f16_currentdump_1255.csv;
              runtime '2016-07-08 12:55:00';
              mode polar;
}

//high peak with after DR
object currdump {                         
              filename f16_currentdump_1720.csv;
              runtime '2016-07-08 17:20:00';
              mode polar;
}

object currdump {
              filename f16_currentdump_1836.csv;
              runtime '2016-07-08 18:36:00';
              mode polar;
}

object currdump {
              filename f16_currentdump_2030.csv;
              runtime '2016-07-08 20:30:00';
              mode polar;
}


// Note: Number Of Looped Switches in WindMil = 0 

object node {																					///MODIFIED - BUSTYPE CHANGED TO "SWING"///
          name            TA-3 SOURCE; 
          phases          ABCN; 
          bustype         SWING; 
          voltage_A       +69715.03906250+0.00000000j; 
          voltage_B       -34857.51953125-60374.99218750j; 
          voltage_C       -34857.51953125+60374.99218750j; 
          nominal_voltage 66395.28125000; 
          } 

object recloser {
          name                TR-1 115KV; 
          from                TA-3 SOURCE; 
          to                  TR-1 115KV_n; 
          phases              ABCN; 
          max_number_of_tries 2; 
          } 

object node {name   TR-1 115KV_n; phases ABCN; nominal_voltage 66395.28125000;  } 

object transformer {
          name   TR1_10_D3_38; 
          from   TR-1 115KV_n; 
          to     TR-1 (10_D3_38)_n; 
          phases ABCN; 
          configuration WYE_WYE-TR-1 TERTIARY-66395To7967V; 
          } 

object node {name   TR-1 (10_D3_38)_n; phases ABCN; nominal_voltage 7967.43408203;  } 

object recloser {
          name                TR-1 13_D3_8KV (1960); 
          from                TR-1 (10_D3_38)_n; 
          to                  TR-1 13_D3_8KV (1960)_n; 
          phases              ABCN; 
          max_number_of_tries 0; 
          } 

object node {name   TR-1 13_D3_8KV (1960)_n; phases ABCN; nominal_voltage 7967.43408203;  } 

object underground_line {
          name   TC BUS; 
          from   TR-1 13_D3_8KV (1960)_n; 
          to     TC BUS_n; 
          phases ABCN; 
          length 10.00000000; 
          configuration _13 BUS ZABC__1000 MCM CU 220M; 
          } 

object node {name   TC BUS_n; phases ABCN; nominal_voltage 7967.43408203;  } 

object recloser {
          name                TC-2 1949 (UG); 
          from                TC BUS_n; 
          to                  TC-2 1949 (UG)_n; 
          phases              ABCN; 
          max_number_of_tries 0; 
          }

object node {name   TC-2 1949 (UG)_n; phases ABCN; nominal_voltage 7967.43408203;  } 

object underground_line {
          name   TC2 TIE; 
          from   TC-2 1949 (UG)_n; 
          to     TC2 TIE_n; 
          phases ABCN; 
          length 20.00000000; 
          configuration _13 BUS ZABC__1000 MCM CU 220M; 
          } 

object node {name   TC2 TIE_n; phases ABCN; nominal_voltage 7967.43408203;  } 

object recloser {
          name                _1948-1931; 
          from                TC2 TIE_n; 
          to                  _1948-1931_n; 
          phases              ABCN; 
          max_number_of_tries 2; 
          } 

object node {name   _1948-1931_n; phases ABCN; nominal_voltage 7967.43408203;  } 

//*****************************OBJECTS FOR PV/BATTERY SYSTEM*************************
object underground_line {
          name   TC1 TIE; 
          from   _1948-1931_n; 
          to     PV_Battery_meter; 
          phases ABCN; 
          length 20.00000000; 
          configuration _13 BUS ZABC__500 MCM CU (x2); 
          } 

//object node {name   TC1 TIE_n; phases ABCN; nominal_voltage 7967.43408203;  } 

object meter {
	name		PV_Battery_meter;
	phases		ABCN;
	nominal_voltage 7967.43408203;
	object recorder {
                property measured_real_power,measured_voltage_A,measured_voltage_B,measured_voltage_C,measured_current_A,measured_current_B,measured_current_C;
                file pv_battery_meter.csv;
                interval 60;
        };
}

//*****************************END OBJECTS FOR PV/BATTERY SYSTEM**********************

object underground_line {
          name   TC2 UG (1000mcm); 
          from   TC-2 1949 (UG)_n; 
          to     TC2 UG (1000mcm)_n; 
          phases ABCN; 
          length 7800.00000000; 
          configuration _3PH UGABC__1000 MCM CU 220M; 
          } 

object node {name   TC2 UG (1000mcm)_n; phases ABCN; nominal_voltage 7967.43408203;  } 

//ADDING METER AFTER RECLOSER
object recloser {
          name                TC-2 BUS; 
          from                TC2 UG (1000mcm)_n; 
          to                  bus_meter; //TC-2 BUS_n; 
          phases              ABCN; 
          max_number_of_tries 0; 
          } 

object meter {
        name bus_meter;
        nominal_voltage 7967.43408203;
        phases ABCN;
        object recorder {
                property measured_real_power,measured_voltage_A,measured_voltage_B,measured_voltage_C,measured_current_A,measured_current_B,measured_current_C;
                file bus_meter.csv;
                interval 60;
        };
}

object node {name   TC-2 BUS_n; parent bus_meter; phases ABCN; nominal_voltage 7967.43408203;  } 

object underground_line {
          name   TC-2 13_D3_8KV IN; 
          from   TC-2 BUS_n; 
          to     TC-2 13_D3_8KV IN_n; 
          phases ABCN; 
          length 20.00000000; 
          configuration _13 BUS ZABC__1000 MCM CU 220M; 
          } 

object node {name   TC-2 13_D3_8KV IN_n; phases ABCN; nominal_voltage 7967.43408203;  } 

object underground_line {
          name   TC2 161718; 
          from   TC-2 13_D3_8KV IN_n; 
          to     TC2 161718_n; 
          phases ABCN; 
          length 10.00000000; 
          configuration _13 BUS ZABC__1000 MCM CU 220M; 
          } 

object node {name   TC2 161718_n; phases ABCN; nominal_voltage 7967.43408203;  } 

object underground_line {
          name   TC2 1718; 
          from   TC2 161718_n; 
          to     TC2 1718_n; 
          phases ABCN; 
          length 10.00000000; 
          configuration _13 BUS ZABC__1000 MCM CU 220M; 
          } 

object node {name   TC2 1718_n; phases ABCN; nominal_voltage 7967.43408203;  } 

object underground_line {
          name   TC2 18; 
          from   TC2 1718_n; 
          to     TC2 18_n; 
          phases ABCN; 
          length 10.00000000; 
          configuration _13 BUS ZABC__1000 MCM CU 220M; 
          } 

object node {name   TC2 18_n; phases ABCN; nominal_voltage 7967.43408203;  } 

object recloser {
          name                FDR 16 OCD; 
          from                TC2 161718_n; 
          to                  FDR 16 OCD_n; 
          phases              ABCN; 
          max_number_of_tries 0; 
          } 

object node {name   FDR 16 OCD_n; phases ABCN; nominal_voltage 7967.43408203;  } 

object underground_line {
          name   _1600; 
          from   FDR 16 OCD_n; 
          to     _1600_n; 
          phases ABCN; 
          length 450.00000000; 
          configuration _3PH UGABC__500 MCM ALUM 175M; 
          } 

object node {name   _1600_n; phases ABCN; nominal_voltage 7967.43408203;  } 

object underground_line {
          name   _1600A; 
          from   _1600_n; 
          to     _1600A_n; 
          phases ABCN; 
          length 50.00000000; 
          configuration _3PH UGABC__500 MCM ALUM 175M; 
          } 

object node {name   _1600A_n; phases ABCN; nominal_voltage 7967.43408203;  } 

object underground_line {
          name   _1601; 
          from   _1600A_n; 
          to     _1601_n; 
          phases ABCN; 
          length 500.00000000; 
          configuration _3PH UGABC__500 MCM ALUM 175M; 
          } 

object node {name   _1601_n; phases ABCN; nominal_voltage 7967.43408203;  } 

object underground_line {
          name   _1601A; 
          from   _1601_n; 
          to     _1601A_n; 
          phases ABCN; 
          length 250.00000000; 
          configuration _3PH UGABC__500 MCM ALUM 175M; 
          } 

object node {name   _1601A_n; phases ABCN; nominal_voltage 7967.43408203;  } 

object underground_line {
          name   _1602; 
          from   _1601A_n; 
          to     _1602_n; 
          phases ABCN; 
          length 500.00000000; 
          configuration _3PH UGABC__500 MCM ALUM 175M; 
          } 

object node {name   _1602_n; phases ABCN; nominal_voltage 7967.43408203;  } 

object underground_line {
          name   _1603; 
          from   _1602_n; 
          to     _1603_n; 
          phases ABCN; 
          length 500.00000000; 
          configuration _3PH UGABC__500 MCM ALUM 175M; 
          } 

object node {name   _1603_n; phases ABCN; nominal_voltage 7967.43408203;  } 

object underground_line {
          name   _1604; 
          from   _1603_n; 
          to     _1604_n; 
          phases ABCN; 
          length 200.00000000; 
          configuration _3PH UGABC__500 MCM ALUM 175M; 
          } 

object node {name   _1604_n; phases ABCN; nominal_voltage 7967.43408203;  } 

object underground_line {
          name   _1604A; 
          from   _1604_n; 
          to     _1604A_n; 
          phases ABCN; 
          length 200.00000000; 
          configuration _3PH UGABC__500 MCM ALUM 175M; 
          } 

object node {name   _1604A_n; phases ABCN; nominal_voltage 7967.43408203;  } 

																							///SWITCH REMOVED///
																							///SWITCH INTRODUCED AGAIN TO INCLUDE SUPERMARKET///
																							///11/10/16///

object switch {																				
          name   SW 141516-A; 																
          from   _1604A_n; 																	
          to     _1504B_n; 
          phases ABCN; 
          status CLOSED; 
          } 

//*************OBJECTS FOR SUPERMARKET LOAD IMPLEMENTATION START HERE***********************

object node {name   _1504B_n; phases ABCN; nominal_voltage 7967.43408203;  }

object underground_line {
          name   MRKT1; 
          from   _1504B_n; 
          to     MRKT1_n; 
          phases ABCN; 
          length 200.00000000; 
          configuration _3PH UGCBA__1/0 SOLID 175M 1/3N; 
          }

object node {name   MRKT1_n; phases ABCN; nominal_voltage 7967.43408203;  }

object fuse {
          name          MRKT_F; 
          from          MRKT1_n; 
          to            MRKT_F_n; 
          phases        ABCN; 
          current_limit 79.59360504; 
          mean_replacement_time 1.0 ; 
          repair_dist_type      NONE; 
          }
          
object node {name   MRKT_F_n; phases ABCN; nominal_voltage 7967.43408203;  }

object underground_line {
          name   MRKT2; 
          from   MRKT_F_n; 
          to     MRKT2_n; 
          phases ABCN; 
          length 80.00000000; 
          configuration _3PH UGCBA__1/0 SOLID 175M 1/3N; 
          }

object node {name   MRKT2_n; phases ABCN; nominal_voltage 7967.43408203;  }

//*****************END OBJECTS FOR SUPERMARKET LOAD IMPLEMENTATION**************************

object overhead_line {
          name   _1605; 
          from   _1604A_n; 
          to     _1605_n; 
          phases ABCN; 
          length 150.00000000; 
          configuration _8ft CrossarmABCN__1/0 HdCu; 
          } 

object node {name   _1605_n; phases ABCN; nominal_voltage 7967.43408203;  } 

object overhead_line {
          name   _1606; 
          from   _1605_n; 
          to     _1606_n; 															
          phases ABCN; 
          length 150.00000000; 
          configuration _8ft CrossarmABCN__1/0 HdCu; 
          } 

object node {name   _1606_n; phases ABCN; nominal_voltage 7967.43408203;  } 		

object underground_line {
          name   _1606A; 
          from   _1606_n; 
          to     _1606A_n; 
          phases BN; 
          length 220.00000000; 
          configuration _1PH UGB__1/0 SOLID 175M FN; 
          } 

object node {name   _1606A_n; phases BN; nominal_voltage 7967.43408203;  } 

object underground_line {
          name   UG1104; 
          from   _1606A_n; 
          to     UG1104_n; 							
          phases BN; 
          length 70.00000000; 
          configuration _1PH UGB__1/0 SOLID 175M FN; 
          } 

object node {name   UG1104_n; phases BN; nominal_voltage 7967.43408203;  }

object overhead_line {
          name   _1606B; 
          from   _1606_n; 
          to     _1606B_n; 
          phases ABCN; 
          length 380.00000000; 
          configuration _8ft CrossarmABCN__1/0 HdCu; 
          } 

object node {name   _1606B_n; phases ABCN; nominal_voltage 7967.43408203;  } 

object underground_line {
          name   _1606C; 
          from   _1606B_n; 
          to     _1606C_n; 
          phases ABCN; 
          length 50.00000000; 
          configuration _3PH UGABC__500 MCM ALUM 175M; 
          } 

object underground_line {
          name   _1650A; 
          from   _1650_n; 
          to     _1650A_n; 
          phases ABCN; 
          length 250.00000000; 
          configuration _3PH UGABC__500 MCM ALUM 175M; 
          } 

object node {name   _1650A_n; phases ABCN; nominal_voltage 7967.43408203;  } 

object overhead_line {
          name   _1651; 
          from   _1650A_n; 
          to     _1651_n; 
          phases ABCN; 
          length 450.00000000; 
          configuration _8ft CrossarmABCN__1/0 HdCu; 
          } 

object node {name   _1651_n; phases ABCN; nominal_voltage 7967.43408203;  } 

object overhead_line {
          name   _1651A1; 
          from   _1651_n; 
          to     _1651A1_n; 
          phases ABCN; 
          length 50.00000000; 
          configuration _8ft CrossarmABCN__1/0 HdCu; 
          } 

object node {name   _1651A1_n; phases ABCN; nominal_voltage 7967.43408203;  } 

object recloser {
          name                SAN IDELFONSO 16-2; 
          from                _1651A1_n; 
          to                  SAN IDELFONSO 16-2_n; 
          phases              ABCN; 
          max_number_of_tries 2; 
          } 

object node {name   SAN IDELFONSO 16-2_n; phases ABCN; nominal_voltage 7967.43408203;  } 

object overhead_line {
          name   _1651A; 
          from   SAN IDELFONSO 16-2_n; 
          to     _1651A_n; 
          phases ABCN; 
          length 500.00000000; 
          configuration _8ft CrossarmABCN__1/0 HdCu; 
          } 

object node {name   _1651A_n; phases ABCN; nominal_voltage 7967.43408203;  } 

object overhead_line {
          name   _1651A2; 
          from   _1651A_n; 
          to     _1651A2_n; 
          phases ABCN; 
          length 500.00000000; 
          configuration _8ft CrossarmABCN__1/0 HdCu; 
          } 

object node {name   _1651A2_n; phases ABCN; nominal_voltage 7967.43408203;  } 

object fuse {
          name          OCD2180; 
          from          _1651A2_n; 
          to            OCD2180_n; 
          phases        CN; 
          current_limit 61.18894958; 
          mean_replacement_time 1.0 ; 
          repair_dist_type      NONE; 
          } 

object node {name   OCD2180_n; phases CN; nominal_voltage 7967.43408203;  } 

object underground_line {
          name   UG2176; 
          from   OCD2180_n; 
          to     UG2176_n; 
          phases CN; 
          length 175.00000000; 
          configuration _1PH UGC__1/0 SOLID 175M FN; 
          } 

object node {name   UG2176_n; phases CN; nominal_voltage 7967.43408203;  } 

object underground_line {
          name   UG2177; 
          from   UG2176_n; 
          to     UG2177_n; 
          phases CN; 
          length 300.00000000; 
          configuration _1PH UGC__1/0 SOLID 175M FN; 
          } 

object node {name   UG2177_n; phases CN; nominal_voltage 7967.43408203;  } 

object underground_line {
          name   UG2178; 
          from   UG2177_n; 
          to     UG2178_n; 
          phases CN; 
          length 100.00000000; 
          configuration _1PH UGC__1/0 SOLID 175M FN; 
          } 

object node {name   UG2178_n; phases CN; nominal_voltage 7967.43408203;  } 

object fuse {
          name          OCD2179; 
          from          _1651A2_n; 
          to            OCD2179_n; 
          phases        AN; 
          current_limit 61.18894958; 
          mean_replacement_time 1.0 ; 
          repair_dist_type      NONE; 
          } 

object node {name   OCD2179_n; phases AN; nominal_voltage 7967.43408203;  } 

object underground_line {
          name   UG2171; 
          from   OCD2179_n; 
          to     UG2171_n; 
          phases AN; 
          length 175.00000000; 
          configuration _1PH UGA__1/0 SOLID 175M FN; 
          } 

object node {name   UG2171_n; phases AN; nominal_voltage 7967.43408203;  } 

object underground_line {
          name   UG2172; 
          from   UG2171_n; 
          to     UG2172_n; 
          phases AN; 
          length 200.00000000; 
          configuration _1PH UGA__1/0 SOLID 175M FN; 
          } 

object node {name   UG2172_n; phases AN; nominal_voltage 7967.43408203;  } 			

object underground_line {
          name   UG2173; 
          from   UG2172_n; 
          to     UG2173_n; 
          phases AN; 
          length 470.00000000; 
          configuration _1PH UGA__1/0 SOLID 175M FN; 
          } 

object node {name   UG2173_n; phases AN; nominal_voltage 7967.43408203;  } 

object underground_line {
          name   UG2174; 
          from   UG2172_n; 
          to     UG2174_n; 
          phases AN; 
          length 250.00000000; 
          configuration _1PH UGA__1/0 SOLID 175M FN; 
          } 

object node {name   UG2174_n; phases AN; nominal_voltage 7967.43408203;  } 

object underground_line {
          name   UG2175; 
          from   UG2174_n; 
          to     UG2175_n; 
          phases AN; 
          length 1050.00000000; 
          configuration _1PH UGA__1/0 SOLID 175M FN; 
          } 

object node {name   UG2175_n; phases AN; nominal_voltage 7967.43408203;  } 

object overhead_line {
          name   _1653; 
          from   _1651A2_n; 
          to     _1653_n; 
          phases ABCN; 
          length 420.00000000; 
          configuration _8ft CrossarmABCN__1/0 HdCu; 
          } 

object node {name   _1653_n; phases ABCN; nominal_voltage 7967.43408203;  } 

//ADDING METER AFTER LINE _1665
object overhead_line {
          name   _1665; 
          from   _1653_n; 
          to     north_mesa_meter4; //_1665_n; 
          phases ABCN; 
          length 1550.00000000; 
          configuration _8ft CrossarmABCN__1/0 HdCu; 
          }

object meter {
        name north_mesa_meter4;
        nominal_voltage 7967.43408203;
        phases ABCN;
        object recorder {
                property measured_real_power,measured_voltage_A,measured_voltage_B,measured_voltage_C,measured_current_A,measured_current_B,measured_current_C;
                file north_mesa_meter4.csv;
                interval 60;
        };
}

object node {name   _1665_n; parent north_mesa_meter4; phases ABCN; nominal_voltage 7967.43408203;  } 

object fuse {
          name          F-2 L1-1; 
          from          _1665_n; 
          to            F-2 L1-1_n; 
          phases        ABCN; 
          current_limit 39.36728287; 
          mean_replacement_time 1.0 ; 
          repair_dist_type      NONE; 
          } 

object node {name   F-2 L1-1_n; phases ABCN; nominal_voltage 7967.43408203;  } 

object underground_line {
          name   _1666; 
          from   F-2 L1-1_n; 
          to     _1666_n; 
          phases ABCN; 
          length 720.00000000; 
          configuration _3PH UGABC__4/0 ALUM 15KV 1/3N; 
          } 

object node {name   _1666_n; phases ABCN; nominal_voltage 7967.43408203;  } 

object overhead_line {
          name   _1667; 
          from   _1666_n; 
          to     _1667_n; 
          phases ABCN; 
          length 250.00000000; 
          configuration _8ft CrossarmABCN__1/0 HdCu; 
          } 

object node {name   _1667_n; phases ABCN; nominal_voltage 7967.43408203;  } 

object fuse {
          name          F-2 L3-1; 
          from          _1667_n; 
          to            F-2 L3-1_n; 
          phases        ACN; 
          current_limit 193.58869934; 
          mean_replacement_time 1.0 ; 
          repair_dist_type      NONE; 
          } 

object node {name   F-2 L3-1_n; phases ACN; nominal_voltage 7967.43408203;  } 

object overhead_line {
          name   _1668; 
          from   F-2 L3-1_n; 
          to     _1668_n; 
          phases ACN; 
          length 830.00000000; 
          configuration _8ft CrossarmACN__#4 HdCu - 3s; 
          } 

object node {name   _1668_n; phases ACN; nominal_voltage 7967.43408203;  } 

object overhead_line {
          name   _1668B; 
          from   _1668_n; 
          to     _1668B_n; 
          phases ACN; 
          length 320.00000000; 
          configuration _8ft CrossarmACN__#4 HdCu - 3s; 
          } 

object node {name   _1668B_n; phases ACN; nominal_voltage 7967.43408203;  } 

object underground_line {
          name   UG357; 
          from   _1668B_n; 
          to     UG357_n; 
          phases AN; 
          length 200.00000000; 
          configuration _1PH UGA__1/0 AL 175MIL FN; 
          } 

object node {name   UG357_n; phases AN; nominal_voltage 7967.43408203;  } 

object overhead_line {
          name   _1668C; 
          from   _1668B_n; 
          to     _1668C_n; 
          phases ACN; 
          length 480.00000000; 
          configuration _8ft CrossarmACN__#4 HdCu - 3s; 
          } 

object node {name   _1668C_n; phases ACN; nominal_voltage 7967.43408203;  } 

object fuse {
          name          F-2 L3-2; 
          from          _1668C_n; 
          to            F-2 L3-2_n; 
          phases        ACN; 
          current_limit 30.27171326; 
          mean_replacement_time 1.0 ; 
          repair_dist_type      NONE; 
          } 

object node {name   F-2 L3-2_n; phases ACN; nominal_voltage 7967.43408203;  } 

object overhead_line {
          name   _1668D; 
          from   F-2 L3-2_n; 
          to     _1668D_n; 
          phases ACN; 
          length 500.00000000; 
          configuration _8ft CrossarmACN__#4 HdCu - 3s; 
          } 

object node {name   _1668D_n; phases ACN; nominal_voltage 7967.43408203;  } 

object overhead_line {
          name   _1668E; 
          from   _1668D_n; 
          to     _1668E_n; 
          phases ACN; 
          length 500.00000000; 
          configuration _8ft CrossarmACN__#4 HdCu - 3s; 
          } 

object node {name   _1668E_n; phases ACN; nominal_voltage 7967.43408203;  } 

object overhead_line {
          name   _1668F; 
          from   _1668E_n; 
          to     _1668F_n; 
          phases ACN; 
          length 500.00000000; 
          configuration _8ft CrossarmACN__#4 HdCu - 3s; 
          } 

object node {name   _1668F_n; phases ACN; nominal_voltage 7967.43408203;  } 

object overhead_line {
          name   _1668G; 
          from   _1668F_n; 
          to     _1668G_n; 
          phases ACN; 
          length 590.59997559; 
          configuration _8ft CrossarmACN__#4 HdCu - 3s; 
          } 

object node {name   _1668G_n; phases ACN; nominal_voltage 7967.43408203;  } 

object overhead_line {
          name   _1669; 
          from   _1667_n; 
          to     _1669_n; 
          phases ABCN; 
          length 300.00000000; 
          configuration _8ft CrossarmABCN__1/0 HdCu; 
          } 

object node {name   _1669_n; phases ABCN; nominal_voltage 7967.43408203;  } 

object overhead_line {
          name   _1669C; 
          from   _1669_n; 
          to     _1669C_n; 
          phases ABCN; 
          length 350.00000000; 
          configuration _8ft CrossarmABCN__1/0 HdCu; 
          } 

object node {name   _1669C_n; phases ABCN; nominal_voltage 7967.43408203;  } 

object overhead_line {
          name   _1669D; 
          from   _1669C_n; 
          to     _1669D_n; 
          phases ABCN; 
          length 310.00000000; 
          configuration _8ft CrossarmABCN__1/0 HdCu; 
          } 

object node {name   _1669D_n; phases ABCN; nominal_voltage 7967.43408203;  } 

object overhead_line {
          name   _1669A; 
          from   _1669_n; 
          to     _1669A_n; 
          phases ABCN; 
          length 280.00000000; 
          configuration _8ft CrossarmABCN__1/0 HdCu; 
          } 

object node {name   _1669A_n; phases ABCN; nominal_voltage 7967.43408203;  } 

object node {name   F-1 L14-1_n; phases ACN; nominal_voltage 7967.43408203;  } 

object overhead_line {
          name   _1644C; 
          from   F-1 L14-1_n; 
          to     _1644C_n; 
          phases ACN; 
          length 253.59469604; 
          configuration C1 25 FT_D3_ (8FT)ACN__#4 HdCu - 3s; 
          } 

object node {name   _1644C_n; phases ACN; nominal_voltage 7967.43408203;  } 

object overhead_line {
          name   _1644C2; 
          from   _1644C_n; 
          to     _1644C2_n; 
          phases ACN; 
          length 200.00000000; 
          configuration C1 25 FT_D3_ (8FT)ACN__#4 HdCu - 3s; 
          } 

object node {name   _1644C2_n; phases ACN; nominal_voltage 7967.43408203;  } 

object overhead_line {
          name   _1644C1; 
          from   _1644C_n; 
          to     _1644C1_n; 
          phases ACN; 
          length 216.40530396; 
          configuration C1 25 FT_D3_ (8FT)ACN__#4 HdCu - 3s; 
          } 

object node {name   _1644C1_n; phases ACN; nominal_voltage 7967.43408203;  } 

object overhead_line {
          name   _1644D; 
          from   F-1 L14-1_n; 
          to     _1644D_n; 
          phases ACN; 
          length 640.00000000; 
          configuration C1 25 FT_D3_ (8FT)ACN__#4 HdCu - 3s; 
          } 

object node {name   _1644D_n; phases ACN; nominal_voltage 7967.43408203;  } 

object overhead_line {
          name   _1644E; 
          from   F-1 L14-1_n; 
          to     _1644E_n; 
          phases ACN; 
          length 300.00000000; 
          configuration C1 25 FT_D3_ (8FT)ACN__#4 HdCu - 3s; 
          } 

object node {name   _1644E_n; phases ACN; nominal_voltage 7967.43408203;  } 

object overhead_line {
          name   _1644E1; 
          from   _1644E_n; 
          to     _1644E1_n; 
          phases ACN; 
          length 700.00000000; 
          configuration C1 25 FT_D3_ (8FT)ACN__#4 HdCu - 3s; 
          } 

object node {name   _1644E1_n; phases ACN; nominal_voltage 7967.43408203;  } 

object overhead_line {
          name   _1644A; 
          from   _1644_n; 
          to     _1644A_n; 
          phases ACN; 
          length 450.00000000; 
          configuration C1 25 FT_D3_ (8FT)ACN__#4 HdCu - 3s; 
          } 

object node {name   _1644A_n; phases ACN; nominal_voltage 7967.43408203;  } 

object overhead_line {
          name   _1644A2; 
          from   _1644A_n; 
          to     _1644A2_n; 
          phases ACN; 
          length 270.00000000; 
          configuration C1 25 FT_D3_ (8FT)ACN__#4 HdCu - 3s; 
          } 

object node {name   _1644A2_n; phases ACN; nominal_voltage 7967.43408203;  } 

object fuse {
          name          F-1 L11-1; 
          from          _1643B_n; 
          to            F-1 L11-1_n; 
          phases        AN; 
          current_limit 61.18894958; 
          mean_replacement_time 1.0 ; 
          repair_dist_type      NONE; 
          } 

object node {name   F-1 L11-1_n; phases AN; nominal_voltage 7967.43408203;  } 

object underground_line {
          name   _1646; 
          from   F-1 L11-1_n; 
          to     _1646_n; 
          phases AN; 
          length 150.00000000; 
          configuration _1PH UGA__1/0 SOLID 175M FN; 
          } 

object node {name   _1646_n; phases AN; nominal_voltage 7967.43408203;  } 

object underground_line {
          name   _1646A; 
          from   _1646_n; 
          to     _1646A_n; 
          phases AN; 
          length 200.00000000; 
          configuration _1PH UGA__1/0 SOLID 175M FN; 
          } 

object node {name   _1646A_n; phases AN; nominal_voltage 7967.43408203;  } 

object underground_line {
          name   _1646B; 
          from   _1646A_n; 
          to     _1646B_n; 
          phases AN; 
          length 400.00000000; 
          configuration _1PH UGA__1/0 SOLID 175M FN; 
          } 

object node {name   _1646B_n; phases AN; nominal_voltage 7967.43408203;  } 

object underground_line {
          name   _1646C; 
          from   _1646B_n; 
          to     _1646C_n; 
          phases AN; 
          length 500.00000000; 
          configuration _1PH UGA__1/0 SOLID 175M FN; 